26

C    -1.5889369   -0.8528778   -1.8732487 
C    -2.1952207   -0.9276224    0.5083579 
C    -0.3692881   -2.3486012   -0.3245008 
O    -0.6760450    0.0989312   -3.8826536 
O    -1.3079982    1.2957057    0.6482661 
O     1.0802469   -3.1877678    1.4118367 
O     0.2992480    0.6362684   -1.9387585 
O    -3.4130738    0.9726350    1.3492347 
C    -0.5951599    0.0010950   -2.6609172 
C    -2.3647330    0.5515026    0.8624209 
C     0.6227827   -2.2068279    0.8324041 
N    -1.1327132   -1.1026736   -0.4953382 
Fe    0.3902284    0.5174551   -0.0027221 
O     2.5783470    0.6597988   -0.5270423 
H    -2.5302947   -0.2889401   -1.8445216 
H    -1.7888211   -1.7886589   -2.4105833 
H    -1.9056894   -1.4443936    1.4334919 
H    -3.1482157   -1.3552934    0.1723903 
H     0.2177929   -2.5357656   -1.2341807 
H    -1.0235509   -3.2155365   -0.1633923 
H     2.6884158    0.5351241   -1.4857889 
H     3.1221628   -0.0285429   -0.1066529 
O     0.9589813   -0.9668898    1.1160630 
O     1.0976602    2.2042886    1.0651240 
H     1.8945526    2.6301760    0.7045097 
H     0.4392189    2.9033636    1.2213048 
